&atmos_model_nml
  blocksize = 32
  chksum_debug = .false.
  dycore_only = .false.
  ccpp_suite = 'FV3_GFS_v17_p8_ugwpv1'
/

&diag_manager_nml
  prepend_date = .false.
  max_output_fields = 310
/

&fms_nml
  clock_grain = 'ROUTINE'
  domains_stack_size = 3000000
  print_memory_usage = .false.
/

&fms2_io_nml
  netcdf_default_format = 'netcdf4'
/

&fv_core_nml
  layout = 1,1
  io_layout = 1,1
  npx = 49
  npy = 49
  ntiles = 6
  npz = 127
  dz_min = 6
  psm_bc = 1
  grid_type = -1
  make_nh = .false.
  fv_debug = .false.
  range_warn = .true.
  reset_eta = .false.
  n_sponge = 42
  nudge_qv = .true.
  nudge_dz = .false.
  tau = 10.0
  fast_tau_w_sec = 0.2
  rf_cutoff = 100.0
  d2_bg_k1 = 0.20
  d2_bg_k2 = 0.04
  kord_tm = -9
  kord_mt = 9
  kord_wz = 9
  kord_tr = 9
  hydrostatic = .false.
  phys_hydrostatic = .false.
  use_hydro_pressure = .false.
  pass_full_omega_to_physics_in_non_hydrostatic_mode = .false.
  beta = 0.
  a_imp = 1.
  p_fac = 0.1
  k_split = 1
  n_split = 4
  nwat = 6
  na_init = 0
  d_ext = 0.
  dnats = 0
  fv_sg_adj = 3600
  d2_bg = 0.
  nord = 2
  dddmp = 0.1
  d4_bg = 0.12
  vtdm4 = 0.02
  delt_max = 0.002
  ke_bg = 0.
  do_vort_damp = .true.
  external_ic = .false.
  external_eta = .true.
  gfs_phil = .false.
  nggps_ic = .false.
  mountain = .true.
  ncep_ic = .false.
  d_con = 1.
  hord_mt = 5
  hord_vt = 5
  hord_tm = 5
  hord_dp = -5
  hord_tr = 8
  adjust_dry_mass = .false.
  dry_mass = 98320.0
  consv_te = 1.
  do_sat_adj = .false.
  consv_am = .false.
  fill = .true.
  dwind_2d = .false.
  print_freq = 6
  warm_start = .true.
  no_dycore = .false.
  z_tracer = .true.
  agrid_vel_rst = .true.
  read_increment = .false.
  res_latlon_dynamics = ''
  ignore_rst_cksum = .false.
  increment_file_on_native_grid = .false.
/

&external_ic_nml
  filtered_terrain = .true.
  levp = 128
  gfs_dwinds = .true.
  checker_tr = .false.
  nt_checker = 0
/

!>[GFS_PHYSICS_NML]
&gfs_physics_nml
  fhzero       = 6
  h2o_phys     = .true.
  ldiag3d      = .false.
  qdiag3d      = .false.
  print_diff_pgr = .false.
  fhcyc        = 24
  use_ufo      = .true.
  pre_rad      = .false.
  imp_physics  = 8
  iovr         = 3
  ltaerosol    = .false.
  mraerosol    = .false.
  lthailaware  = .false.
  lradar       = .false.
  ttendlim     = -999
  dt_inner     = 720
  sedi_semi    = .true.
  decfl        = 10
  oz_phys      = .false.
  oz_phys_2015 = .true.
  lsoil_lsm    = 4
  do_mynnedmf  = .false.
  do_mynnsfclay = .false.
  icloud_bl    = 1
  bl_mynn_edmf = 1
  bl_mynn_tkeadvect = .true.
  bl_mynn_edmf_mom = 1
  tte_edmf     = .false.
  cscale       = 1.0
  do_ngw_ec    = .false.
  do_ugwp      = .false.
  do_tofd      = .false.
  gwd_opt      = 2
  do_ugwp_v0   = .false.
  do_ugwp_v1   = .true.
  do_ugwp_v0_orog_only = .false.
  do_ugwp_v0_nst_only  = .false.
  do_gsl_drag_ls_bl    = .true.
  do_gsl_drag_ss       = .true.
  do_gwd_opt_psl       = .false.
  psl_gwd_dx_factor    = 6.0
  do_gsl_drag_tofd     = .true.
  do_ugwp_v1_orog_only = .false.
  min_lakeice  = 0.15
  min_seaice   = 0.15
  use_cice_alb = .false.
  pdfcld       = .false.
  fhswr        = 3600.
  fhlwr        = 3600.
  ialb         = 2
  iems         = 2
  iaer         = 5111
  icliq_sw     = 2
  ico2         = 2
  isubc_sw     = 2
  isubc_lw     = 2
  isol         = 2
  lwhtr        = .true.
  swhtr        = .true.
  cnvgwd       = .true.
  shal_cnv     = .true.
  cal_pre      = .false.
  redrag       = .true.
  dspheat      = .true.
  hybedmf      = .false.
  satmedmf     = .true.
  isatmedmf    = 1
  lheatstrg    = .false.
  lseaspray    = .true.
  random_clds  = .false.
  trans_trac   = .true.
  cnvcld       = .true.
  xr_cnvcld    = .false.
  imfshalcnv   = 2
  imfdeepcnv   = 2
  progsigma    = .false.
  betascu      = 8.0
  betamcu      = 1.0
  betadcu      = 2.0
  ras          = .false.
  cdmbgwd      = 40.0,1.77,1.0,1.0
  prslrd0      = 0.
  ivegsrc      = 1
  isot         = 1
  lsoil        = 4
  lsm          = 2
  iopt_dveg    = 4
  iopt_crs     = 2
  iopt_btr     = 1
  iopt_run     = 1
  iopt_sfc     = 3
  iopt_trs     = 2
  iopt_diag    = 2
  iopt_frz     = 1
  iopt_inf     = 1
  iopt_rad     = 3
  iopt_alb     = 1
  iopt_snf     = 4
  iopt_tbot    = 2
  iopt_stc     = 3
  debug        = .false.
  nstf_name    = 2,0,0,0,0
  nst_anl      = .true.
  psautco      = 0.0008,0.0005
  prautco      = 0.00015,0.00015
  lgfdlmprad   = .false.
  effr_in      = .true.
  ldiag_ugwp   = .false.
  fscav_aero   = "*:0.3","so2:0.0","msa:0.0","dms:0.0","nh3:0.4","nh4:0.6","bc1:0.6","bc2:0.6","oc1:0.4","oc2:0.4","dust1:0.6","dust2:0.6","dust3:0.6","dust4:0.6","dust5:0.6","seas1:0.5","seas2:0.5","seas3:0.5","seas4:0.5","seas5:0.5"
  do_RRTMGP          = .false.
  active_gases       = 'h2o_co2_o3_n2o_ch4_o2'
  ngases             = 6
  lw_file_gas        = 'rrtmgp-data-lw-g128-210809.nc'
  lw_file_clouds     = 'rrtmgp-cloud-optics-coeffs-lw.nc'
  sw_file_gas        = 'rrtmgp-data-sw-g112-210809.nc'
  sw_file_clouds     = 'rrtmgp-cloud-optics-coeffs-sw.nc'
  rrtmgp_nGptsSW     = 112
  rrtmgp_nGptsLW     = 128
  rrtmgp_nBandsLW    = 16
  rrtmgp_nBandsSW    = 14
  doGP_lwscat        = .true.
  do_sppt      = .false.
  do_shum      = .false.
  do_skeb      = .false.
  use_med_flux = .false.
  frac_grid    = .true.
  cplchm       = .false.
  cplflx       = .false.
  cplice       = .false.
  cplwav       = .false.
  cplwav2atm   = .false.
  cpllnd       = .false.
  cpllnd2atm   = .false.
  use_oceanuv  = .false.
  do_ca        = .true.
  ca_global    = .false.
  ca_sgs       = .true.
  nca          = 1
  ncells       = 5
  nlives       = 12
  nseed        = 1
  nfracseed    = 0.5
  nthresh      = 18
  ca_trigger   = .true.
  nspinup      = 1
  iseed_ca     = 12345
  lndp_type   = 0
  n_var_lndp  = 0
  lcnorm  = .false.
  pert_mp = .false.
  pert_radtend = .false.
  pert_clds = .false.
  iaufhrs      = -1
  iau_delthrs  = 0
  iau_inc_files= ''
  iau_drymassfixer = .false.
  iau_filter_increments = .false.
/
!![GFS_PHYSICS_NML]

&land_iau_nml
  do_land_iau = .false.
  land_iau_fhrs = 3,6,9
  land_iau_delthrs = 6
  land_iau_inc_files = 'sfc_inc',''
  lsoil_incr = 3
  land_iau_filter_increments = .false.
  land_iau_upd_stc = .true.
  land_iau_upd_slc = .true.
  land_iau_do_stcsmc_adjustment = .true.
  land_iau_min_T_increment = 0.0001
  land_iau_min_SLC_increment = 0.000001
/

!>[CIRES_UGWP_NML]
&cires_ugwp_nml
  knob_ugwp_solver   = 2
  knob_ugwp_source   = 1,1,0,0
  knob_ugwp_wvspec   = 1,25,25,25
  knob_ugwp_azdir    = 2,4,4,4
  knob_ugwp_stoch    = 0,0,0,0
  knob_ugwp_effac    = 1,1,1,1
  knob_ugwp_doaxyz   = 1
  knob_ugwp_doheat   = 1
  knob_ugwp_dokdis   = 2
  knob_ugwp_ndx4lh   = 4
  knob_ugwp_version  = 1
  ! This is only for UGWP v0
! launch_level      = 54
  ! These are only for UGWP v1
  knob_ugwp_palaunch = 275.0e2
  knob_ugwp_nslope   = 1
  knob_ugwp_lzmax    = 15.750e3
  knob_ugwp_lzmin    = 0.75e3
  knob_ugwp_lzstar   = 2.0e3
  knob_ugwp_taumin   = 0.25e-3
  knob_ugwp_tauamp   = 6.0e-3
  knob_ugwp_lhmet    = 200.0e3
  knob_ugwp_orosolv  = 'pss-1986'
/
!![CIRES_UGWP_NML]

&gfdl_cloud_microphysics_nml
  sedi_transport = .true.
  do_sedi_heat = .false.
  rad_snow = .true.
  rad_graupel = .true.
  rad_rain = .true.
  const_vi = .false.
  const_vs = .false.
  const_vg = .false.
  const_vr = .false.
  vi_max = 1.
  vs_max = 2.
  vg_max = 12.
  vr_max = 12.
  qi_lim = 1.
  prog_ccn = .false.
  do_qa = .true.
  fast_sat_adj = .true.
  tau_l2v = 225.
  tau_v2l = 150.
  tau_g2v = 900.
  rthresh = 10.e-6   ! This is a key parameter for cloud water
  dw_land  = 0.16
  dw_ocean = 0.10
  ql_gen = 1.0e-3
  ql_mlt = 1.0e-3
  qi0_crt = 8.0e-5
  qs0_crt = 1.0e-3
  tau_i2s = 1000.
  c_psaci = 0.05
  c_pgacs = 0.01
  rh_inc = 0.30
  rh_inr = 0.30
  rh_ins = 0.30
  ccn_l = 300.
  ccn_o = 100.
  c_paut = 0.5
  c_cracw = 0.8
  use_ppm = .false.
  use_ccn = .true.
  mono_prof = .true.
  z_slope_liq  = .true.
  z_slope_ice  = .true.
  de_ice = .false.
  fix_negative = .true.
  icloud_f = 1
  mp_time = 150.
  reiflag = 2
/

&interpolator_nml
  interp_method = 'conserve_great_circle'
/

&namsfc
  FNGLAC   = 'global_glacier.2x2.grb'
  FNMXIC   = 'global_maxice.2x2.grb'
  FNTSFC   = 'RTGSST.1982.2012.monthly.clim.grb'
  FNSNOC   = 'global_snoclim.1.875.grb'
  FNZORC   = 'igbp'
  FNALBC   = 'C48.snowfree_albedo.tileX.nc'
  FNALBC2  = 'C48.facsf.tileX.nc'
  FNAISC   = 'IMS-NIC.blended.ice.monthly.clim.grb'
  FNTG3C   = 'C48.substrate_temperature.tileX.nc'
  FNVEGC   = 'C48.vegetation_greenness.tileX.nc'
  FNVETC   = 'C48.vegetation_type.tileX.nc'
  FNSOTC   = 'C48.soil_type.tileX.nc'
  FNSOCC   = 'C48.soil_color.tileX.nc'
  FNSMCC   = 'global_soilmgldas.statsgo.t92.192.94.grb'
  FNMSKH   = 'global_slmask.t62.192.94.grb'
  FNTSFA   = ''
  FNACNA   = ''
  FNSNOA   = ''
  FNVMNC   = 'C48.vegetation_greenness.tileX.nc'
  FNVMXC   = 'C48.vegetation_greenness.tileX.nc'
  FNSLPC   = 'C48.slope_type.tileX.nc'
  FNABSC   = 'C48.maximum_snow_albedo.tileX.nc'
  LDEBUG   = .false.
  FSMCL(2) = 99999
  FSMCL(3) = 99999
  FSMCL(4) = 99999
  LANDICE  = .false.
  FTSFS    = 90
  FAISL    = 99999
  FAISS    = 99999
  FSNOL    = 99999
  FSNOS    = 99999
  FSICL    = 0
  FSICS    = 0
  FTSFL    = 99999
  FVETL    = 99999
  FSOTL    = 99999
  FvmnL    = 99999
  FvmxL    = 99999
  FSLPL    = 99999
  FABSL    = 99999
/

&fv_grid_nml
  grid_file = 'INPUT/grid_spec.nc'
/

&nam_stochy
  new_lscale=.false.
  STOCHINI=.false.
  skeb = -999.
  iseed_skeb = 0
  skeb_tau = 21600,
  skeb_lscale = 250000,
  skebnorm = 0,
  skeb_npass = 30,
  skeb_vdof = 5,
  skebint = 0
  shum = -999.
  iseed_shum = 1,
  shum_tau = 21600,
  shum_lscale = 500000,
  shumint = 0
  sppt = -999.
  iseed_sppt = 20210325000103
  sppt_tau = 2.16E4
  sppt_lscale = 500.E3
  sppt_logit = .true.,
  sppt_sfclimit = .true.,
  use_zmtnblck = .true.
  spptint = 0
  pbl_taper = 0,0,0,0.125,0.25,0.5,0.75
  OCNSPPT = -999.
  OCNSPPT_LSCALE = 500.E3
  OCNSPPT_TAU = 2.16E4
  ISEED_OCNSPPT =20210325000108
  EPBL = -999.
  EPBL_LSCALE = 500.E3
  EPBL_TAU = 2.16E4
  ISEED_EPBL = 20210325000113
/

&nam_sfcperts
  lndp_type = 0
  lndp_model_type = 0
  LNDP_TAU=21600,
  LNDP_LSCALE=500000,
  ISEED_LNDP=2010,
  lndp_var_list = 'XXX'
  lndp_prt_list = -999
/

&MOM_input_nml
  output_directory = './MOM6_OUTPUT',
  input_filename = 'n'
  restart_input_dir = 'INPUT/',
  restart_output_dir = './RESTART/'
  parameter_filename = 'INPUT/MOM_input','INPUT/MOM_override'
/
