&atmos_model_nml
  blocksize = 70
  chksum_debug = .false.
  dycore_only = .false.
  avg_max_length = 10800.
  ccpp_suite = 'FV3_HAFS_v1_thompson_nonsst'
  ignore_rst_cksum = .true.
/

&diag_manager_nml
  prepend_date = .false.
/

&fms2_io_nml
  netcdf_default_format="netcdf4"
/

&fms_nml
  clock_grain = 'ROUTINE',
  domains_stack_size = 30000000,
  print_memory_usage = .false.
/

&fv_grid_nml
  grid_file = 'INPUT/grid_spec.nc'
/

&fv_core_nml
  ignore_rst_cksum = .true.
  layout = 15,15
  io_layout = 1,1
  npx = 1051
  npy = 1051
  ntiles = 1
  npz = 81
 !grid_type = -1
  make_nh = .false.
  fv_debug = .false.
  range_warn = .true.
  reset_eta = .false.
  upoff = 2
  n_sponge = 24
  nudge_qv = .false.
  nudge_dz = .false.
  tau = 5.
  rf_cutoff = 50.e2
  sg_cutoff = -1.
  rf_fast = .false.
  d2_bg_k1 = 0.20
  d2_bg_k2 = 0.15
  kord_tm = -11
  kord_mt = 11
  kord_wz = 11
  kord_tr = 11
  hydrostatic = .false.
  phys_hydrostatic = .false.
  use_hydro_pressure = .false.
  beta = 0.
  a_imp = 1.
  p_fac = 0.1
  k_split = 2
  n_split = 5
  nwat = 6
  na_init = 1
  d_ext = 0.0
  dnats = 0
  fv_sg_adj = 300
  d2_bg = 0.
  nord = 2
  dddmp = 0.1
  d4_bg = 0.15
  vtdm4 = 0.04
  delt_max = 0.008
  dz_min = 2.0
  ke_bg = 0.
  do_vort_damp = .true.
  external_ic = .true.
  external_eta = .true.
  gfs_phil = .false.
  nggps_ic = .true.
  mountain = .false.
  ncep_ic = .false.
  d_con = 1.0
  hord_mt = 1
  hord_vt = 1
  hord_tm = 1
  hord_dp = 1
  hord_tr = -5
  lim_fac = 3.1
  adjust_dry_mass = .false.
  consv_te = 0.
  do_sat_adj = .false.
  consv_am = .false.
  fill = .true.
  dwind_2d = .false.
  print_freq = 3
  warm_start = .false.
  no_dycore = .false.
  z_tracer = .true.
  agrid_vel_rst = .true.
  read_increment = .false.
  res_latlon_dynamics = "fv3_increment.nc"
  write_3d_diags = .true.

  do_schmidt = .true.
  target_lat = 10.0
  target_lon = -179.9
  stretch_fac = 1.0001
  regional = .true.
  bc_update_interval = 126
  nrows_blend = 20
  psm_bc = 1

  full_zs_filter = .true.
  n_zs_filter = 1
  nord_zs_filter = 4
  pass_full_omega_to_physics_in_non_hydrostatic_mode = .false.
/

&fv_nest_nml
  grid_pes = @[GRID_PES]
  tile_coarse = 0
  num_tile_top = 1
  p_split = 1
  nest_refine = 0
  nest_ioffsets = 999
  nest_joffsets = 999
/

&fv_moving_nest_nml
  surface_dir = "INPUT/moving_nest"
  is_moving_nest = .false.
  vortex_tracker = 0,7
  ntrack = 0,4
  move_cd_x = 0,0
  move_cd_y = 0,0
/

&surf_map_nml
  zero_ocean = .false.
  cd4 = 0.15
  cd2 = -1
  n_del2_strong = 0
  n_del2_weak = 15
  n_del4 = 2
  max_slope = 0.12
  peak_fac = 1.
/

&external_ic_nml
  filtered_terrain = .true.
  levp = 82
  gfs_dwinds = .true.
  checker_tr = .false.
  nt_checker = 0
/

!>[GFS_PHYSICS_NML]
&gfs_physics_nml
  fhzero               = 3.
  ldiag3d              = .false.
  lradar               = .true.
  avg_max_length       = 10800.
  h2o_phys             = .true.
  fhcyc                = 0.
  use_ufo              = .true.
  pre_rad              = .false.
  imp_physics          = 8
  iovr                 = 3
  ltaerosol            = .false.
  ttendlim             = -999
  dt_inner             = 45
  sedi_semi            = .true.
  decfl                = 10
  pdfcld               = .false.
  min_lakeice          = 0.15
  min_seaice           = 0.15
  use_cice_alb         = .false
  fhswr                = 900.
  fhlwr                = 900.
  ialb                 = 1
  iems                 = 1
  iaer                 = 1011
  ico2                 = 2
  isubc_sw             = 2
  isubc_lw             = 2
  isol                 = 2
  lwhtr                = .true.
  swhtr                = .true.
  cnvgwd               = .false.
  cal_pre              = .false.
  redrag               = .true.
  dspheat              = .true.
  hybedmf              = .false.
  hurr_pbl             = .true. ! HWRF moninedmf
  moninq_fac           = -1.0   ! HWRF_moninedmf
  satmedmf             = .true.
  isatmedmf            = 1
  lseaspray            = .false.
  rlmx                 = 300.
  elmx                 = 300.
  sfc_rlm              = 1
  tc_pbl               = 0
  random_clds          = .false.
  trans_trac           = .true.
  cnvcld               = .true.
  shal_cnv             = .true. !Shallow convection
  do_deep              = .true.
  imfshalcnv           = 2
  imfdeepcnv           = 2
  clam_deep            = 0.15
  betal_deep           = 0.05
  betas_deep           = 0.05
  c1_deep              = 0.002
  c1_shal              = 0.0005
  progsigma            = .false.
  betascu              = 4.0
  betamcu              = 1.0
  betadcu              = 1.0
  cdmbgwd              = 1.0,1.0,1.0,1.0
  sfc_z0_type          = 6
  prslrd0              = 0.
  ivegsrc              = 1
  isot                 = 1
  lsoil                = 4
  lsm                  = 1
  iopt_dveg            = 4
  iopt_crs             = 2
  iopt_btr             = 1
  iopt_run             = 1
  iopt_sfc             = 3
  iopt_frz             = 1
  iopt_inf             = 1
  iopt_rad             = 3
  iopt_alb             = 1
  iopt_snf             = 4
  iopt_tbot            = 2
  iopt_stc             = 3
  iopt_trs             = 2
  lsoil_lsm            = 4
  debug                = .false.
  oz_phys              = .false.
  oz_phys_2015         = .true.
  nst_anl              = .true.
  nstf_name            = 2,1,0,0,0
  cplflx               = .false.
  cplice               = .false.
  cplocn2atm           = .true.
  icplocn2atm          = 1
  cplwav               = .false.
  cplwav2atm           = .false.
  cpl_imp_mrg          = .true.
  psautco              = 0.0008, 0.0005
  prautco              = 0.00015, 0.00015
  iau_delthrs          = 6
  iaufhrs              = 0
  iau_inc_files        = ,
  iau_drymassfixer     = .false.
  lgfdlmprad           = .false.
  effr_in              = .true.
  do_sppt              = .false.
  do_shum              = .false.
  do_skeb              = .false.
  lndp_type            = 0
  n_var_lndp           = 0
  do_ca                = .false.
  ca_sgs               = .false.
  nca                  = 1
  ncells               = 5
  nlives               = 12
  nseed                = 1
  nfracseed            = 0.5
  ca_trigger           = .false.
  ca_entr              = .false.
  ca_closure           = .false.
  ca_global            = .false.
  nca_g                = 1
  ncells_g             = 1
  nlives_g             = 100
  nseed_g              = 100
  ca_smooth            = .false.
  nspinup              = 1
  iseed_ca             = 1
  nsmooth              = 100
  ca_amplitude         = 0.35
  print_diff_pgr       = .true.
  do_ugwp              = .false.
  do_tofd              = .false.
  gwd_opt              = 2
  do_ugwp_v0           = .false.
  do_ugwp_v1           = .false.
  do_ugwp_v0_orog_only = .false.
  do_ugwp_v0_nst_only  = .true.
  do_ugwp_v1_w_gsldrag = .false.
  do_ugwp_v1_orog_only = .false.
  do_gsl_drag_ls_bl    = .true.
  do_gsl_drag_ss       = .true.
  do_gsl_drag_tofd     = .true.
/
!![GFS_PHYSICS_NML]

&gfdl_cloud_microphysics_nml
  sedi_transport = .false.
  do_sedi_heat = .false.
  rad_snow = .true.
  rad_graupel = .true.
  rad_rain = .true.
  const_vi = .false.
  const_vs = .false.
  const_vg = .false.
  const_vr = .false.
  vi_max = 1.
  vs_max = 2.
  vg_max = 12.
  vr_max = 12.
  qi_lim = 1.
  prog_ccn = .false.
  do_qa = .true.
  fast_sat_adj = .true.
  tau_l2v = 180.
  tau_v2l = 90.
  tau_g2v = 900.
  rthresh = 10.e-6  ! This is a key parameter for cloud water
  dw_land = 0.16
  dw_ocean = 0.10
  ql_gen = 1.0e-3
  ql_mlt = 1.0e-3
  qi0_crt = 8.0E-5
  qs0_crt = 1.0e-3
  tau_i2s = 1000.
  c_psaci = 0.05
  c_pgacs = 0.01
  rh_inc = 0.30
  rh_inr = 0.30
  rh_ins = 0.30
  ccn_l = 300.
  ccn_o = 100.
  c_paut = 0.5
  c_cracw = 0.8
  use_ppm = .false.
  use_ccn = .true.
  mono_prof = .true.
  z_slope_liq = .true.
  z_slope_ice = .true.
  de_ice = .false.
  fix_negative = .true.
  icloud_f = 1
  mp_time = 90.
/

&interpolator_nml
  interp_method = 'conserve_great_circle'
/

&namsfc
  FNGLAC   = "global_glacier.2x2.grb",
  FNMXIC   = "global_maxice.2x2.grb",
  FNTSFC   = "RTGSST.1982.2012.monthly.clim.grb",
  FNSNOC   = "global_snoclim.1.875.grb",
  FNZORC   = "igbp"
 !FNZORC   = "global_zorclim.1x1.grb",
  FNALBC   = "global_snowfree_albedo.bosu.t1534.3072.1536.rg.grb",
  FNALBC2  = "global_albedo4.1x1.grb",
  FNAISC   = "CFSR.SEAICE.1982.2012.monthly.clim.grb",
  FNTG3C   = "global_tg3clim.2.6x1.5.grb",
  FNVEGC   = "global_vegfrac.0.144.decpercent.grb",
  FNVETC   = "global_vegtype.igbp.t1534.3072.1536.rg.grb",
  FNSOTC   = "global_soiltype.statsgo.t1534.3072.1536.rg.grb",
  FNSMCC   = "global_soilmgldas.t1534.3072.1536.grb",
  FNMSKH   = "seaice_newland.grb",
  FNTSFA   = "",
  FNACNA   = "",
  FNSNOA   = "",
  FNVMNC   = "global_shdmin.0.144x0.144.grb",
  FNVMXC   = "global_shdmax.0.144x0.144.grb",
  FNSLPC   = "global_slope.1x1.grb",
  FNABSC   = "global_mxsnoalb.uariz.t1534.3072.1536.rg.grb",
  LDEBUG   = .true.,
  FSMCL(2) = 99999
  FSMCL(3) = 99999
  FSMCL(4) = 99999
  FTSFS    = 90
  FAISS    = 99999
  FSNOL    = 99999
  FSICL    = 99999
  FTSFL    = 99999
  FAISL    = 99999
  FVETL    = 99999,
  FSOTL    = 99999,
  FvmnL    = 99999,
  FvmxL    = 99999,
  FSLPL    = 99999,
  FABSL    = 99999,
  FSNOS    = 99999,
  FSICS    = 99999,
/

&nam_stochy
  skebnorm = 1
  skeb_npass = 30
  skeb_vdof = 5
  skeb = 0.6,-999,-999,-999,-999
  skeb_tau = 2.16e4,1.728e5,2.592e6,7.776e6,3.1536e7
  skeb_lscale = 500.e3,1000.e3,2000.e3,2000.e3,2000.e3
  shum = 0.003
  shum_tau = 21600
  shum_lscale = 500000
  sppt = 0.4,0.2,0.1,0.04,0.02
  sppt_tau = 2.16e4,2.592e5,2.592e6,7.776e6,3.1536e7
  sppt_lscale = 500.e3,1000.e3,2000.e3,2000.e3,2000.e3
  sppt_logit = .true.
  sppt_sfclimit = .true.
  use_zmtnblck = .true.
  iseed_sppt = 0,0,0,0,0
  iseed_shum = 0,0,0,0,0
  iseed_skeb = 0,0,0,0,0
/

&nam_sfcperts
/

&cires_ugwp_nml
  knob_ugwp_solver  = 2
  knob_ugwp_source  = 1,1,0,0
  knob_ugwp_wvspec  = 1,25,25,25
  knob_ugwp_azdir   = 2,4,4,4
  knob_ugwp_stoch   = 0,0,0,0
  knob_ugwp_effac   = 1,1,1,1
  knob_ugwp_doaxyz  = 1
  knob_ugwp_doheat  = 1
  knob_ugwp_dokdis  = 1
  knob_ugwp_ndx4lh  = 1
  knob_ugwp_version = 0
  launch_level      = 25
/

&MOM_input_nml
  output_directory = 'OUTPUT',
  input_filename = 'n'
  restart_input_dir = 'INPUT',
  restart_output_dir = 'RESTART',
  parameter_filename = 'MOM_input'
/
